Info: SIMULATION PARAMETERS:
Info: TIMESTEP               2
Info: NUMBER OF STEPS        0
Info: STEPS PER CYCLE        10
Info: PERIODIC CELL BASIS 1  100 0 0
Info: PERIODIC CELL BASIS 2  0 100 0
Info: PERIODIC CELL BASIS 3  0 0 100
Info: PERIODIC CELL CENTER   0 0 0
Info: WRAPPING WATERS AROUND PERIODIC BOUNDARIES ON OUTPUT.
Info: WRAPPING ALL CLUSTERS AROUND PERIODIC BOUNDARIES ON OUTPUT.
Info: FIRST LDB TIMESTEP     50
Info: LAST LDB TIMESTEP     -1
Info: HOM BACKGROUND SCALING 1
Info: PME BACKGROUND SCALING 1
Info: MIN ATOMS PER PATCH    40
Info: EMPTY PATCH LOAD       40 ATOMS
Info: VELOCITY FILE          ../minimize/minimized.restart.vel
Info: CENTER OF MASS MOVING INITIALLY? NO
Info: REMOVING CENTER OF MASS DRIFT DURING SIMULATION
Info: DIELECTRIC             1
Info: EXCLUDE                SCALED ONE-FOUR
Info: 1-4 ELECTROSTATICS SCALED BY 1
Info: MODIFIED 1-4 VDW PARAMETERS WILL BE USED
Info: DCD FILENAME           MDequil.dcd
Info: DCD FREQUENCY          5000
Info: DCD FIRST STEP         5000
Info: DCD FILE WILL CONTAIN UNIT CELL DATA
Info: XST FILENAME           MDequil.xst
Info: XST FREQUENCY          5000
Info: NO VELOCITY DCD OUTPUT
Info: NO FORCE DCD OUTPUT
Info: OUTPUT FILENAME        MDequil
Info: BINARY OUTPUT FILES WILL BE USED
Info: RESTART FILENAME       MDequil.restart
Info: RESTART FREQUENCY      50000
Info: BINARY RESTART FILES WILL BE USED
Info: SWITCHING ACTIVE
Info: SWITCHING ON           10
Info: SWITCHING OFF          12
Info: PAIRLIST DISTANCE      14
Info: PAIRLIST SHRINK RATE   0.01
Info: PAIRLIST GROW RATE     0.01
Info: PAIRLIST TRIGGER       0.3
Info: PAIRLISTS PER CYCLE    2
Info: PAIRLISTS ENABLED
Info: MARGIN                 0
Info: HYDROGEN GROUP CUTOFF  2.5
Info: PATCH DIMENSION        16.5
Info: ENERGY OUTPUT STEPS    5000
Info: ENERGY EVALUATION STEPS    5000
Info: OUTPUT ENERGY PRECISION 4
Info: CROSSTERM ENERGY INCLUDED IN DIHEDRAL
Info: TIMING OUTPUT STEPS    50000
Info: PRESSURE OUTPUT STEPS  5000
Info: LANGEVIN DYNAMICS ACTIVE
Info: LANGEVIN TEMPERATURE   300
Info: LANGEVIN USING BBK INTEGRATOR
Info: LANGEVIN DAMPING COEFFICIENT IS 1 INVERSE PS
Info: LANGEVIN DYNAMICS NOT APPLIED TO HYDROGENS
Info: PARTICLE MESH EWALD (PME) ACTIVE
Info: PME TOLERANCE               1e-06
Info: PME EWALD COEFFICIENT       0.257952
Info: PME INTERPOLATION ORDER     4
Info: PME GRID DIMENSIONS         108 108 108
Info: PME MAXIMUM GRID SPACING    1
Info: FULL ELECTROSTATIC EVALUATION FREQUENCY      2
Info: USING VERLET I (r-RESPA) MTS SCHEME.
Info: C1 SPLITTING OF LONG RANGE ELECTROSTATICS
Info: PLACING ATOMS IN PATCHES BY HYDROGEN GROUPS
Info: RIGID BONDS TO HYDROGEN : ALL
Info:         ERROR TOLERANCE : 1e-08
Info:          MAX ITERATIONS : 100
Info: RIGID WATER USING SETTLE ALGORITHM
Info: RANDOM NUMBER SEED     1745490631
Info: USE HYDROGEN BONDS?    NO
Info: COORDINATE PDB         ../input/system.pdb
Info: STRUCTURE FILE         ../input/system.psf
Info: PARAMETER file: CHARMM format!
Info: PARAMETERS             ../input/par_all36m_prot.inp
Info: PARAMETERS             ../input/par_water_ions.inp
Info: USING ARITHMETIC MEAN TO COMBINE L-J SIGMA PARAMETERS
Info: BINARY COORDINATES     ../minimize/minimized.restart.coor
Info: SUMMARY OF PARAMETERS:
Info: 135 BONDS
Info: 365 ANGLES
Info: 706 DIHEDRAL
Info: 35 IMPROPER
Info: 6 CROSSTERM
Info: 68 VDW
Info: 3 VDW_PAIRS
Info: 0 NBTHOLE_PAIRS
Info: STRUCTURE SUMMARY:
Info: 2941 ATOMS
Info: 2377 BONDS
Info: 2827 ANGLES
Info: 3293 DIHEDRALS
Info: 212 IMPROPERS
Info: 74 CROSSTERMS
Info: 0 EXCLUSIONS
Info: 2339 RIGID BONDS
Info: 6484 DEGREES OF FREEDOM
Info: 1172 HYDROGEN GROUPS
Info: 4 ATOMS IN LARGEST HYDROGEN GROUP
Info: 1172 MIGRATION GROUPS
Info: 4 ATOMS IN LARGEST MIGRATION GROUP
Info: TOTAL MASS = 18833.6 amu
Info: TOTAL CHARGE = 1.0021e-06 e
Info: MASS DENSITY = 0.0312747 g/cm^3
Info: ATOM DENSITY = 0.002941 atoms/A^3
Info: ADDED 8468 IMPLICIT EXCLUSIONS
Info: NONBONDED TABLE R-SQUARED SPACING: 0.0625
Info: NONBONDED TABLE SIZE: 769 POINTS
Info: REMOVING COM VELOCITY 0 0 0
TCL: Running for 500000 steps
ETITLE: TS BOND ANGLE DIHED IMPRP ELECT VDW BOUNDARY MISC KINETIC TOTAL TEMP POTENTIAL TOTAL3 TEMPAVG PRESSURE GPRESSURE VOLUME PRESSAVG GPRESSAVG
ENERGY: 0 59.5157 214.8191 677.6939 12.3651 -10775.0631 904.9305 0.0000 0.0000 0.0000 -8905.7388 0.0000 -8905.7388 -8905.7024 0.0000 53.0395 54.2286 1000000.0000 53.0395 54.2286
ENERGY: 100000 222.2786 713.3279 728.2937 42.1083 -9052.5858 205.7443 0.0000 0.0000 1982.2177 -5158.6154 307.6796 -7140.8331 -5145.4194 298.9471 -10.0131 -10.2253 1000000.0000 1.0721 1.0706
ENERGY: 200000 221.4079 703.2367 731.2230 47.6856 -8922.1422 191.1752 0.0000 0.0000 1900.8981 -5126.5157 295.0572 -7027.4138 -5112.7635 299.2142 -24.7808 -23.6527 1000000.0000 -0.3042 -0.3010
ENERGY: 300000 235.8100 729.1646 717.9536 36.2852 -9178.4263 298.4197 0.0000 0.0000 1881.8774 -5278.9158 292.1048 -7160.7932 -5265.3157 296.2584 24.7444 24.7469 1000000.0000 -0.3326 -0.3324
ENERGY: 400000 230.8799 727.7513 735.9857 38.1449 -9043.1802 243.4165 0.0000 0.0000 1938.1055 -5128.8964 300.8325 -7067.0019 -5115.6271 301.4870 12.7412 12.5510 1000000.0000 -0.2466 -0.2429
ENERGY: 500000 252.0124 718.1412 714.5950 37.7968 -9079.0813 260.8400 0.0000 0.0000 1937.9080 -5157.7880 300.8019 -7095.6960 -5146.5305 297.6828 -9.6217 -9.2082 1000000.0000 -0.2618 -0.2615
